@<TRIPOS>MOLECULE
1hsg_ligand.pdb
94 98 1 0 0
SMALL
AMBER ff14SB


@<TRIPOS>ATOM
      1 N1          9.2800   23.7630    3.0040 N.4       1 MK1   -0.6984
      2 C1          9.4980   23.9830    4.4590 C.3       1 MK1    0.0868
      3 C2         10.5910   24.9050    4.9620 C.3       1 MK1    0.0075
      4 C3         10.5910   24.8640    6.4660 C.2       1 MK1    0.6481
      5 O1         10.9370   23.8490    7.0570 O.2       1 MK1   -0.5851
      6 N2         10.1930   25.9530    7.0940 N.am      1 MK1   -0.5149
      7 C4         10.1450   26.2500    8.4900 C.3       1 MK1    0.1154
      8 C5          9.3790   27.5770    8.6410 C.3       1 MK1   -0.1168
      9 C6         11.3980   26.3470    9.0740 C.3       1 MK1   -0.1168
     10 C7          9.3640   25.2830    9.2680 C.3       1 MK1   -0.1168
     11 N3         11.8190   24.2820    4.3550 N.4       1 MK1   -0.6874
     12 C8         11.7530   23.7760    2.9610 C.3       1 MK1    0.0978
     13 C9         10.4400   23.1820    2.4930 C.3       1 MK1    0.0788
     14 C10        13.0830   24.9630    4.5520 C.3       1 MK1    0.1078
     15 C11        14.2030   24.0640    5.0780 C.3       1 MK1    0.1431
     16 O2         15.2420   24.8840    4.6340 O.3       1 MK1   -0.5858
     17 C12        14.4400   23.7610    6.5690 C.3       1 MK1   -0.1294
     18 C13        15.5730   22.8210    7.0050 C.3       1 MK1   -0.1337
     19 C14        15.6440   22.6640    8.5340 C.3       1 MK1   -0.0311
     20 C15        16.7330   21.7500    8.9610 C.ar      1 MK1   -0.1303
     21 C16        18.0580   21.9160    8.5530 C.ar      1 MK1   -0.1350
     22 C17        19.0370   21.0160    8.9470 C.ar      1 MK1   -0.1165
     23 C18        18.6730   19.9390    9.7580 C.ar      1 MK1   -0.0980
     24 C19        17.3470   19.7730   10.1760 C.ar      1 MK1   -0.1165
     25 C20        16.3740   20.6870    9.7720 C.ar      1 MK1   -0.1350
     26 C21        15.4470   21.4400    6.3730 C.2       1 MK1    0.6881
     27 O3         14.3670   20.8310    6.3970 O.2       1 MK1   -0.7941
     28 N4         16.5830   20.9130    5.9240 N.am      1 MK1   -0.4959
     29 C22        16.6920   19.5000    5.6040 C.3       1 MK1    0.1100
     30 C23        18.0670   18.9450    5.9360 C.3       1 MK1    0.1421
     31 O4         19.0610   19.9380    5.7290 O.3       1 MK1   -0.5818
     32 C24        18.2260   17.7260    5.0570 C.3       1 MK1   -0.0451
     33 C25        17.4760   17.9040    3.7600 C.ar      1 MK1   -0.0603
     34 C26        17.5000   17.3630    2.4960 C.ar      1 MK1   -0.1000
     35 C27        16.6130   17.8720    1.5410 C.ar      1 MK1   -0.1000
     36 C28        15.7220   18.9060    1.8650 C.ar      1 MK1   -0.1420
     37 C29        15.6830   19.4790    3.1290 C.ar      1 MK1   -0.1280
     38 C30        16.5040   19.0610    4.1280 C.ar      1 MK1   -0.1273
     39 C31         8.0330   23.1000    2.6040 C.3       1 MK1    0.1981
     40 C32         6.6660   23.7390    2.8760 C.ar      1 MK1   -0.3366
     41 C33         6.1580   24.8080    2.1240 C.ar      1 MK1    0.4232
     42 N5          4.9110   25.4300    2.3000 N.ar      1 MK1   -0.6300
     43 C34         4.2070   24.8390    3.3480 C.ar      1 MK1    0.4612
     44 C35         4.6540   23.7740    4.1360 C.ar      1 MK1   -0.2283
     45 C36         5.9050   23.2110    3.8970 C.ar      1 MK1   -0.0530
     46 HN          9.2379   24.6856    2.5952 H         1 MK1    0.4508
     47 HC2         9.6980   23.0030    4.8923 H         1 MK1    0.1432
     48 HC3         8.5563   24.3371    4.8783 H         1 MK1    0.1432
     49 HC         10.4455   25.9218    4.5971 H         1 MK1    0.1177
     50 HN1         9.8704   26.6962    6.4910 H         1 MK1    0.3285
     51 HN2        11.9327   23.4365    4.8957 H         1 MK1    0.5198
     52 HC4        12.5155   23.0040    2.8577 H         1 MK1    0.1387
     53 HC5        12.0103   24.5966    2.2913 H         1 MK1    0.1387
     54 HC6        10.4045   23.2703    1.4072 H         1 MK1    0.1502
     55 HC7        10.4333   22.1228    2.7500 H         1 MK1    0.1502
     56 HC8        13.3996   25.3796    3.5958 H         1 MK1    0.1192
     57 HC9        12.9325   25.7811    5.2563 H         1 MK1    0.1192
     58 HC1        14.2126   23.1314    4.5139 H         1 MK1    0.0567
     59 HC10       14.6245   24.7185    7.0561 H         1 MK1    0.0832
     60 HC11       13.5099   23.3619    6.9736 H         1 MK1    0.0832
     61 HC12       16.5147   23.2562    6.6704 H         1 MK1    0.0907
     62 HC13       15.8160   23.6443    8.9784 H         1 MK1    0.0687
     63 HC14       14.6923   22.2737    8.8945 H         1 MK1    0.0687
     64 HC15       18.3231   22.7533    7.9245 H         1 MK1    0.1285
     65 HC16       20.0620   21.1457    8.6324 H         1 MK1    0.1505
     66 HC17       19.4230   19.2258   10.0664 H         1 MK1    0.1570
     67 HC18       17.0786   18.9401   10.8090 H         1 MK1    0.1505
     68 HC19       15.3487   20.5664   10.0893 H         1 MK1    0.1285
     69 HN3        17.3890   21.5095    5.8027 H         1 MK1    0.3605
     70 HC20       15.9604   18.9633    6.2079 H         1 MK1    0.0657
     71 HC21       18.0840   18.6358    6.9811 H         1 MK1    0.0527
     72 HC22       19.2838   17.5759    4.8411 H         1 MK1    0.0907
     73 HC23       17.8379   16.8520    5.5801 H         1 MK1    0.0907
     74 HC24       18.1853   16.5663    2.2470 H         1 MK1    0.1590
     75 HC25       16.6143   17.4634    0.5413 H         1 MK1    0.1530
     76 HC26       15.0441   19.2682    1.1062 H         1 MK1    0.1320
     77 HC27       14.9822   20.2774    3.3233 H         1 MK1    0.0960
     78 HC28        8.0251   22.1315    3.1040 H         1 MK1    0.1162
     79 HC29        8.0953   22.9113    1.5323 H         1 MK1    0.1162
     80 HC30        6.7863   25.1900    1.3330 H         1 MK1    0.0231
     81 HC31        3.2291   25.2394    3.5712 H         1 MK1    0.0671
     82 HC32        4.0300   23.3886    4.9288 H         1 MK1    0.1830
     83 HC33        6.2677   22.3865    4.4929 H         1 MK1    0.1520
     84 HC34       12.0048   27.0608    8.5169 H         1 MK1    0.0625
     85 HC35       11.8817   25.3703    9.0599 H         1 MK1    0.0625
     86 HC36       11.2932   26.6858   10.1047 H         1 MK1    0.0625
     87 HC37        9.8405   24.3041    9.2154 H         1 MK1    0.0625
     88 HC38        8.3555   25.2184    8.8596 H         1 MK1    0.0625
     89 HC39        9.3150   25.6078   10.3073 H         1 MK1    0.0625
     90 HO         16.0848   24.4899    4.8707 H         1 MK1    0.4450
     91 HO1        19.0551   20.5549    6.4645 H         1 MK1    0.4120
     92 HC40        9.8961   28.3607    8.0873 H         1 MK1    0.0625
     93 HC41        9.3293   27.8496    9.6952 H         1 MK1    0.0625
     94 HC42        8.3691   27.4603    8.2479 H         1 MK1    0.0625
@<TRIPOS>BOND
     1    1    2 1
     2    1   13 1
     3    1   39 1
     4    2    3 1
     5    3    4 1
     6    3   11 1
     7    4    5 2
     8    4    6 am
     9    6    7 1
    10    7    8 1
    11    7    9 1
    12    7   10 1
    13   11   12 1
    14   11   14 1
    15   12   13 1
    16   14   15 1
    17   15   16 1
    18   15   17 1
    19   17   18 1
    20   18   19 1
    21   18   26 1
    22   19   20 1
    23   20   21 ar
    24   20   25 ar
    25   21   22 ar
    26   22   23 ar
    27   23   24 ar
    28   24   25 ar
    29   26   27 2
    30   26   28 am
    31   28   29 1
    32   29   30 1
    33   29   38 1
    34   30   31 1
    35   30   32 1
    36   32   33 1
    37   33   34 ar
    38   33   38 ar
    39   34   35 ar
    40   35   36 ar
    41   36   37 ar
    42   37   38 ar
    43   39   40 1
    44   40   41 ar
    45   40   45 ar
    46   41   42 ar
    47   42   43 ar
    48   43   44 ar
    49   44   45 ar
    50   46    1 1
    51   47    2 1
    52   48    2 1
    53   49    3 1
    54   50    6 1
    55   51   11 1
    56   52   12 1
    57   53   12 1
    58   54   13 1
    59   55   13 1
    60   56   14 1
    61   57   14 1
    62   58   15 1
    63   59   17 1
    64   60   17 1
    65   61   18 1
    66   62   19 1
    67   63   19 1
    68   64   21 1
    69   65   22 1
    70   66   23 1
    71   67   24 1
    72   68   25 1
    73   69   28 1
    74   70   29 1
    75   71   30 1
    76   72   32 1
    77   73   32 1
    78   74   34 1
    79   75   35 1
    80   76   36 1
    81   77   37 1
    82   78   39 1
    83   79   39 1
    84   80   41 1
    85   81   43 1
    86   82   44 1
    87   83   45 1
    88   84    9 1
    89   85    9 1
    90   86    9 1
    91   87   10 1
    92   88   10 1
    93   89   10 1
    94   90   16 1
    95   91   31 1
    96   92    8 1
    97   93    8 1
    98   94    8 1
@<TRIPOS>SUBSTRUCTURE
     1 MK1     1 RESIDUE           4 B     MK1     0 ROOT
